Version 4
SHEET 1 880 680
WIRE 0 -320 -96 -320
WIRE 0 -304 0 -320
WIRE -96 -272 -96 -320
WIRE 0 -144 -96 -144
WIRE 0 -16 0 -64
WIRE 0 32 0 -16
WIRE -256 96 -304 96
WIRE -64 96 -128 96
FLAG 0 160 0
FLAG -304 96 0
FLAG 0 -304 0
FLAG 0 -16 OUT
SYMBOL cktsym\\nmos3 0 96 R0
SYMATTR InstName U1
SYMBOL res -16 -160 R0
SYMATTR InstName R1
SYMATTR Value 10k
SYMBOL cktsym\\vsource -96 -208 R180
WINDOW 3 48 -16 Left 2
WINDOW 0 48 16 Left 2
SYMATTR Value 5
SYMATTR InstName V1
SYMBOL cktsym\\vsource -192 96 R90
WINDOW 3 32 0 VTop 2
WINDOW 0 -32 0 VBottom 2
WINDOW 123 0 0 Left 2
WINDOW 39 0 0 Left 2
SYMATTR Value 3
SYMATTR InstName V2
TEXT -128 320 Left 2 !.include engr2420.sub
TEXT -324 340 Left 2 !.tran 0 0.1 0 0.01
